ELEMENTS
C H 
END
SPECIES
Jet_A(L) Jet_A(G)
END