THERMO ALL
 1 g 2/96 C  12.00H  23.00    0.00    0.00    0.00 1  167.3110200    -303403.000
    220.000    550.0007 -2.0 -1.0  0.0  1.0  2.0  3.0  4.0  0.0            0.000
-4.218262130D+05-5.576600450D+03 1.522120958D+02-8.610197550D-01 3.071662234D-03
-4.702789540D-06 2.743019833D-09                -3.238369150D+04-6.781094910D+02

 2 g 8/01 C  12.00H  23.00    0.00    0.00    0.00 0  167.3110200    -249657.000
    273.150   1000.0007 -2.0 -1.0  0.0  1.0  2.0  3.0  4.0  0.0            0.000
-6.068695590D+05 8.328259590D+03-4.312321270D+01 2.572390455D-01-2.629316040D-04
 1.644988940D-07-4.645335140D-11                -7.606962760D+04 2.794305937D+02
   1000.000   6000.0007 -2.0 -1.0  0.0  1.0  2.0  3.0  4.0  0.0            0.000
 1.858356102D+07-7.677219890D+04 1.419826133D+02-7.437524530D-03 5.856202550D-07
 1.223955647D-11-3.149201922D-15                 4.221989520D+05-8.986061040D+02
 END